<routes>
            <vType accel="1.0" decel="4.5" id="standard_car" length="5.0" minGap="2.5" maxSpeed="25" sigma="0.5" jmIgnoreFoeProb="1" jmIgnoreJunctionFoeProb="1" />

            <route id="N_W" edges="N2TL TL2W"/>
            <route id="N_S" edges="N2TL TL2S"/>
            <route id="S_W" edges="S2TL TL2W"/>
            <route id="S_W_RL" color="1,0,0" edges="S2TL TL2W"/>
            <route id="N_S_HDV" color="1,0,1" edges="N2TL TL2S"/>
            <vehicle id="HDV" type="standard_car" route="N_S_HDV" depart="1.0" departLane="2" departSpeed="10"/>
            <vehicle id="RL" type="standard_car" route="S_W_RL" depart="1.0" departLane="3" departSpeed="14"/> 
    <vehicle id="Ν_S_1" type="standard_car" route="N_S" depart="67.0" departLane="random" departSpeed="10" />
    <vehicle id="N_W_6" type="standard_car" route="N_W" depart="160.0" departLane="random" departSpeed="10" />
    <vehicle id="Ν_S_7" type="standard_car" route="N_S" depart="193.0" departLane="random" departSpeed="10" />
    <vehicle id="Ν_S_9" type="standard_car" route="N_S" depart="198.0" departLane="random" departSpeed="10" />
    <vehicle id="S_W_11" type="standard_car" route="S_W" depart="208.0" departLane="random" departSpeed="10" />
    <vehicle id="Ν_S_12" type="standard_car" route="N_S" depart="226.0" departLane="random" departSpeed="10" />
    <vehicle id="S_W_16" type="standard_car" route="S_W" depart="246.0" departLane="random" departSpeed="10" />
    <vehicle id="Ν_S_17" type="standard_car" route="N_S" depart="248.0" departLane="random" departSpeed="10" />
    <vehicle id="Ν_S_18" type="standard_car" route="N_S" depart="250.0" departLane="random" departSpeed="10" />
    <vehicle id="S_W_22" type="standard_car" route="S_W" depart="260.0" departLane="random" departSpeed="10" />
    <vehicle id="Ν_S_23" type="standard_car" route="N_S" depart="282.0" departLane="random" departSpeed="10" />
    <vehicle id="Ν_S_25" type="standard_car" route="N_S" depart="290.0" departLane="random" departSpeed="10" />
    <vehicle id="Ν_S_26" type="standard_car" route="N_S" depart="309.0" departLane="random" departSpeed="10" />
    <vehicle id="Ν_S_27" type="standard_car" route="N_S" depart="310.0" departLane="random" departSpeed="10" />
    <vehicle id="Ν_S_28" type="standard_car" route="N_S" depart="314.0" departLane="random" departSpeed="10" />
    <vehicle id="Ν_S_30" type="standard_car" route="N_S" depart="324.0" departLane="random" departSpeed="10" />
    <vehicle id="Ν_S_32" type="standard_car" route="N_S" depart="331.0" departLane="random" departSpeed="10" />
    <vehicle id="Ν_S_33" type="standard_car" route="N_S" depart="342.0" departLane="random" departSpeed="10" />
    <vehicle id="S_W_36" type="standard_car" route="S_W" depart="360.0" departLane="random" departSpeed="10" />
    <vehicle id="N_W_38" type="standard_car" route="N_W" depart="364.0" departLane="random" departSpeed="10" />
    <vehicle id="Ν_S_39" type="standard_car" route="N_S" depart="377.0" departLane="random" departSpeed="10" />
    <vehicle id="Ν_S_41" type="standard_car" route="N_S" depart="391.0" departLane="random" departSpeed="10" />
    <vehicle id="N_W_43" type="standard_car" route="N_W" depart="402.0" departLane="random" departSpeed="10" />
    <vehicle id="Ν_S_44" type="standard_car" route="N_S" depart="405.0" departLane="random" departSpeed="10" />
    <vehicle id="Ν_S_45" type="standard_car" route="N_S" depart="422.0" departLane="random" departSpeed="10" />
    <vehicle id="S_W_47" type="standard_car" route="S_W" depart="430.0" departLane="random" departSpeed="10" />
    <vehicle id="S_W_49" type="standard_car" route="S_W" depart="436.0" departLane="random" departSpeed="10" />
    <vehicle id="S_W_51" type="standard_car" route="S_W" depart="441.0" departLane="random" departSpeed="10" />
    <vehicle id="Ν_S_53" type="standard_car" route="N_S" depart="445.0" departLane="random" departSpeed="10" />
    <vehicle id="S_W_54" type="standard_car" route="S_W" depart="448.0" departLane="random" departSpeed="10" />
    <vehicle id="S_W_56" type="standard_car" route="S_W" depart="452.0" departLane="random" departSpeed="10" />
    <vehicle id="S_W_57" type="standard_car" route="S_W" depart="458.0" departLane="random" departSpeed="10" />
    <vehicle id="Ν_S_60" type="standard_car" route="N_S" depart="461.0" departLane="random" departSpeed="10" />
    <vehicle id="N_W_61" type="standard_car" route="N_W" depart="463.0" departLane="random" departSpeed="10" />
    <vehicle id="S_W_62" type="standard_car" route="S_W" depart="463.0" departLane="random" departSpeed="10" />
    <vehicle id="Ν_S_63" type="standard_car" route="N_S" depart="468.0" departLane="random" departSpeed="10" />
    <vehicle id="Ν_S_64" type="standard_car" route="N_S" depart="469.0" departLane="random" departSpeed="10" />
    <vehicle id="S_W_65" type="standard_car" route="S_W" depart="471.0" departLane="random" departSpeed="10" />
    <vehicle id="Ν_S_66" type="standard_car" route="N_S" depart="475.0" departLane="random" departSpeed="10" />
    <vehicle id="S_W_69" type="standard_car" route="S_W" depart="482.0" departLane="random" departSpeed="10" />
    <vehicle id="S_W_70" type="standard_car" route="S_W" depart="482.0" departLane="random" departSpeed="10" />
    <vehicle id="S_W_71" type="standard_car" route="S_W" depart="485.0" departLane="random" departSpeed="10" />
    <vehicle id="Ν_S_72" type="standard_car" route="N_S" depart="488.0" departLane="random" departSpeed="10" />
    <vehicle id="Ν_S_74" type="standard_car" route="N_S" depart="504.0" departLane="random" departSpeed="10" />
    <vehicle id="Ν_S_76" type="standard_car" route="N_S" depart="509.0" departLane="random" departSpeed="10" />
    <vehicle id="Ν_S_77" type="standard_car" route="N_S" depart="518.0" departLane="random" departSpeed="10" />
    <vehicle id="Ν_S_80" type="standard_car" route="N_S" depart="524.0" departLane="random" departSpeed="10" />
    <vehicle id="Ν_S_81" type="standard_car" route="N_S" depart="531.0" departLane="random" departSpeed="10" />
    <vehicle id="Ν_S_82" type="standard_car" route="N_S" depart="538.0" departLane="random" departSpeed="10" />
    <vehicle id="Ν_S_83" type="standard_car" route="N_S" depart="543.0" departLane="random" departSpeed="10" />
    <vehicle id="S_W_84" type="standard_car" route="S_W" depart="551.0" departLane="random" departSpeed="10" />
    <vehicle id="Ν_S_86" type="standard_car" route="N_S" depart="556.0" departLane="random" departSpeed="10" />
    <vehicle id="S_W_88" type="standard_car" route="S_W" depart="572.0" departLane="random" departSpeed="10" />
    <vehicle id="N_W_89" type="standard_car" route="N_W" depart="573.0" departLane="random" departSpeed="10" />
    <vehicle id="Ν_S_90" type="standard_car" route="N_S" depart="574.0" departLane="random" departSpeed="10" />
    <vehicle id="Ν_S_94" type="standard_car" route="N_S" depart="577.0" departLane="random" departSpeed="10" />
    <vehicle id="Ν_S_95" type="standard_car" route="N_S" depart="578.0" departLane="random" departSpeed="10" />
    <vehicle id="Ν_S_98" type="standard_car" route="N_S" depart="584.0" departLane="random" departSpeed="10" />
    <vehicle id="Ν_S_99" type="standard_car" route="N_S" depart="585.0" departLane="random" departSpeed="10" />
    <vehicle id="Ν_S_101" type="standard_car" route="N_S" depart="591.0" departLane="random" departSpeed="10" />
    <vehicle id="Ν_S_102" type="standard_car" route="N_S" depart="592.0" departLane="random" departSpeed="10" />
    <vehicle id="N_W_103" type="standard_car" route="N_W" depart="594.0" departLane="random" departSpeed="10" />
    <vehicle id="N_W_105" type="standard_car" route="N_W" depart="602.0" departLane="random" departSpeed="10" />
    <vehicle id="Ν_S_106" type="standard_car" route="N_S" depart="606.0" departLane="random" departSpeed="10" />
    <vehicle id="N_W_107" type="standard_car" route="N_W" depart="606.0" departLane="random" departSpeed="10" />
    <vehicle id="Ν_S_108" type="standard_car" route="N_S" depart="607.0" departLane="random" departSpeed="10" />
    <vehicle id="Ν_S_109" type="standard_car" route="N_S" depart="614.0" departLane="random" departSpeed="10" />
    <vehicle id="N_W_111" type="standard_car" route="N_W" depart="616.0" departLane="random" departSpeed="10" />
    <vehicle id="S_W_112" type="standard_car" route="S_W" depart="619.0" departLane="random" departSpeed="10" />
    <vehicle id="Ν_S_113" type="standard_car" route="N_S" depart="622.0" departLane="random" departSpeed="10" />
    <vehicle id="Ν_S_115" type="standard_car" route="N_S" depart="631.0" departLane="random" departSpeed="10" />
    <vehicle id="N_W_116" type="standard_car" route="N_W" depart="631.0" departLane="random" departSpeed="10" />
    <vehicle id="N_W_117" type="standard_car" route="N_W" depart="632.0" departLane="random" departSpeed="10" />
    <vehicle id="Ν_S_118" type="standard_car" route="N_S" depart="632.0" departLane="random" departSpeed="10" />
    <vehicle id="Ν_S_119" type="standard_car" route="N_S" depart="636.0" departLane="random" departSpeed="10" />
    <vehicle id="Ν_S_120" type="standard_car" route="N_S" depart="636.0" departLane="random" departSpeed="10" />
    <vehicle id="N_W_121" type="standard_car" route="N_W" depart="636.0" departLane="random" departSpeed="10" />
    <vehicle id="Ν_S_122" type="standard_car" route="N_S" depart="636.0" departLane="random" departSpeed="10" />
    <vehicle id="N_W_123" type="standard_car" route="N_W" depart="636.0" departLane="random" departSpeed="10" />
    <vehicle id="Ν_S_124" type="standard_car" route="N_S" depart="639.0" departLane="random" departSpeed="10" />
    <vehicle id="S_W_125" type="standard_car" route="S_W" depart="640.0" departLane="random" departSpeed="10" />
    <vehicle id="N_W_126" type="standard_car" route="N_W" depart="644.0" departLane="random" departSpeed="10" />
    <vehicle id="Ν_S_133" type="standard_car" route="N_S" depart="676.0" departLane="random" departSpeed="10" />
    <vehicle id="N_W_134" type="standard_car" route="N_W" depart="677.0" departLane="random" departSpeed="10" />
    <vehicle id="Ν_S_135" type="standard_car" route="N_S" depart="677.0" departLane="random" departSpeed="10" />
    <vehicle id="Ν_S_136" type="standard_car" route="N_S" depart="679.0" departLane="random" departSpeed="10" />
    <vehicle id="N_W_138" type="standard_car" route="N_W" depart="681.0" departLane="random" departSpeed="10" />
    <vehicle id="Ν_S_139" type="standard_car" route="N_S" depart="687.0" departLane="random" departSpeed="10" />
    <vehicle id="Ν_S_140" type="standard_car" route="N_S" depart="691.0" departLane="random" departSpeed="10" />
    <vehicle id="S_W_141" type="standard_car" route="S_W" depart="694.0" departLane="random" departSpeed="10" />
    <vehicle id="N_W_143" type="standard_car" route="N_W" depart="700.0" departLane="random" departSpeed="10" />
    <vehicle id="N_W_145" type="standard_car" route="N_W" depart="703.0" departLane="random" departSpeed="10" />
    <vehicle id="Ν_S_146" type="standard_car" route="N_S" depart="708.0" departLane="random" departSpeed="10" />
    <vehicle id="S_W_148" type="standard_car" route="S_W" depart="718.0" departLane="random" departSpeed="10" />
    <vehicle id="Ν_S_149" type="standard_car" route="N_S" depart="720.0" departLane="random" departSpeed="10" />
    <vehicle id="Ν_S_151" type="standard_car" route="N_S" depart="720.0" departLane="random" departSpeed="10" />
    <vehicle id="Ν_S_152" type="standard_car" route="N_S" depart="721.0" departLane="random" departSpeed="10" />
    <vehicle id="Ν_S_155" type="standard_car" route="N_S" depart="732.0" departLane="random" departSpeed="10" />
    <vehicle id="Ν_S_156" type="standard_car" route="N_S" depart="734.0" departLane="random" departSpeed="10" />
    <vehicle id="Ν_S_164" type="standard_car" route="N_S" depart="753.0" departLane="random" departSpeed="10" />
    <vehicle id="Ν_S_166" type="standard_car" route="N_S" depart="757.0" departLane="random" departSpeed="10" />
    <vehicle id="N_W_167" type="standard_car" route="N_W" depart="758.0" departLane="random" departSpeed="10" />
    <vehicle id="Ν_S_169" type="standard_car" route="N_S" depart="759.0" departLane="random" departSpeed="10" />
    <vehicle id="Ν_S_170" type="standard_car" route="N_S" depart="764.0" departLane="random" departSpeed="10" />
    <vehicle id="S_W_171" type="standard_car" route="S_W" depart="767.0" departLane="random" departSpeed="10" />
    <vehicle id="Ν_S_173" type="standard_car" route="N_S" depart="781.0" departLane="random" departSpeed="10" />
    <vehicle id="S_W_174" type="standard_car" route="S_W" depart="782.0" departLane="random" departSpeed="10" />
    <vehicle id="Ν_S_175" type="standard_car" route="N_S" depart="784.0" departLane="random" departSpeed="10" />
    <vehicle id="N_W_176" type="standard_car" route="N_W" depart="789.0" departLane="random" departSpeed="10" />
    <vehicle id="S_W_177" type="standard_car" route="S_W" depart="789.0" departLane="random" departSpeed="10" />
    <vehicle id="Ν_S_178" type="standard_car" route="N_S" depart="790.0" departLane="random" departSpeed="10" />
    <vehicle id="Ν_S_180" type="standard_car" route="N_S" depart="794.0" departLane="random" departSpeed="10" />
    <vehicle id="Ν_S_182" type="standard_car" route="N_S" depart="801.0" departLane="random" departSpeed="10" />
    <vehicle id="Ν_S_183" type="standard_car" route="N_S" depart="801.0" departLane="random" departSpeed="10" />
    <vehicle id="N_W_184" type="standard_car" route="N_W" depart="805.0" departLane="random" departSpeed="10" />
    <vehicle id="Ν_S_185" type="standard_car" route="N_S" depart="809.0" departLane="random" departSpeed="10" />
    <vehicle id="Ν_S_188" type="standard_car" route="N_S" depart="815.0" departLane="random" departSpeed="10" />
    <vehicle id="S_W_190" type="standard_car" route="S_W" depart="816.0" departLane="random" departSpeed="10" />
    <vehicle id="S_W_191" type="standard_car" route="S_W" depart="817.0" departLane="random" departSpeed="10" />
    <vehicle id="Ν_S_192" type="standard_car" route="N_S" depart="819.0" departLane="random" departSpeed="10" />
    <vehicle id="Ν_S_193" type="standard_car" route="N_S" depart="826.0" departLane="random" departSpeed="10" />
    <vehicle id="S_W_194" type="standard_car" route="S_W" depart="828.0" departLane="random" departSpeed="10" />
    <vehicle id="Ν_S_196" type="standard_car" route="N_S" depart="843.0" departLane="random" departSpeed="10" />
    <vehicle id="Ν_S_197" type="standard_car" route="N_S" depart="844.0" departLane="random" departSpeed="10" />
    <vehicle id="N_W_199" type="standard_car" route="N_W" depart="850.0" departLane="random" departSpeed="10" />
    <vehicle id="N_W_200" type="standard_car" route="N_W" depart="862.0" departLane="random" departSpeed="10" />
    <vehicle id="N_W_201" type="standard_car" route="N_W" depart="868.0" departLane="random" departSpeed="10" />
    <vehicle id="S_W_202" type="standard_car" route="S_W" depart="870.0" departLane="random" departSpeed="10" />
    <vehicle id="N_W_206" type="standard_car" route="N_W" depart="875.0" departLane="random" departSpeed="10" />
    <vehicle id="Ν_S_208" type="standard_car" route="N_S" depart="880.0" departLane="random" departSpeed="10" />
    <vehicle id="N_W_211" type="standard_car" route="N_W" depart="887.0" departLane="random" departSpeed="10" />
    <vehicle id="N_W_212" type="standard_car" route="N_W" depart="887.0" departLane="random" departSpeed="10" />
    <vehicle id="Ν_S_213" type="standard_car" route="N_S" depart="889.0" departLane="random" departSpeed="10" />
    <vehicle id="Ν_S_214" type="standard_car" route="N_S" depart="890.0" departLane="random" departSpeed="10" />
    <vehicle id="N_W_215" type="standard_car" route="N_W" depart="890.0" departLane="random" departSpeed="10" />
    <vehicle id="N_W_216" type="standard_car" route="N_W" depart="892.0" departLane="random" departSpeed="10" />
    <vehicle id="Ν_S_217" type="standard_car" route="N_S" depart="897.0" departLane="random" departSpeed="10" />
    <vehicle id="Ν_S_218" type="standard_car" route="N_S" depart="900.0" departLane="random" departSpeed="10" />
    <vehicle id="Ν_S_219" type="standard_car" route="N_S" depart="900.0" departLane="random" departSpeed="10" />
    <vehicle id="Ν_S_221" type="standard_car" route="N_S" depart="904.0" departLane="random" departSpeed="10" />
    <vehicle id="Ν_S_222" type="standard_car" route="N_S" depart="906.0" departLane="random" departSpeed="10" />
    <vehicle id="N_W_224" type="standard_car" route="N_W" depart="914.0" departLane="random" departSpeed="10" />
    <vehicle id="Ν_S_225" type="standard_car" route="N_S" depart="914.0" departLane="random" departSpeed="10" />
    <vehicle id="Ν_S_226" type="standard_car" route="N_S" depart="915.0" departLane="random" departSpeed="10" />
    <vehicle id="Ν_S_227" type="standard_car" route="N_S" depart="917.0" departLane="random" departSpeed="10" />
    <vehicle id="Ν_S_228" type="standard_car" route="N_S" depart="919.0" departLane="random" departSpeed="10" />
    <vehicle id="N_W_230" type="standard_car" route="N_W" depart="925.0" departLane="random" departSpeed="10" />
    <vehicle id="Ν_S_233" type="standard_car" route="N_S" depart="928.0" departLane="random" departSpeed="10" />
    <vehicle id="N_W_235" type="standard_car" route="N_W" depart="938.0" departLane="random" departSpeed="10" />
    <vehicle id="Ν_S_236" type="standard_car" route="N_S" depart="938.0" departLane="random" departSpeed="10" />
    <vehicle id="Ν_S_239" type="standard_car" route="N_S" depart="945.0" departLane="random" departSpeed="10" />
    <vehicle id="S_W_241" type="standard_car" route="S_W" depart="946.0" departLane="random" departSpeed="10" />
    <vehicle id="S_W_243" type="standard_car" route="S_W" depart="948.0" departLane="random" departSpeed="10" />
    <vehicle id="N_W_244" type="standard_car" route="N_W" depart="953.0" departLane="random" departSpeed="10" />
    <vehicle id="S_W_245" type="standard_car" route="S_W" depart="954.0" departLane="random" departSpeed="10" />
    <vehicle id="Ν_S_246" type="standard_car" route="N_S" depart="955.0" departLane="random" departSpeed="10" />
    <vehicle id="S_W_248" type="standard_car" route="S_W" depart="958.0" departLane="random" departSpeed="10" />
    <vehicle id="Ν_S_249" type="standard_car" route="N_S" depart="960.0" departLane="random" departSpeed="10" />
    <vehicle id="S_W_250" type="standard_car" route="S_W" depart="960.0" departLane="random" departSpeed="10" />
    <vehicle id="Ν_S_251" type="standard_car" route="N_S" depart="962.0" departLane="random" departSpeed="10" />
    <vehicle id="Ν_S_254" type="standard_car" route="N_S" depart="966.0" departLane="random" departSpeed="10" />
    <vehicle id="Ν_S_255" type="standard_car" route="N_S" depart="970.0" departLane="random" departSpeed="10" />
    <vehicle id="Ν_S_257" type="standard_car" route="N_S" depart="973.0" departLane="random" departSpeed="10" />
    <vehicle id="Ν_S_260" type="standard_car" route="N_S" depart="975.0" departLane="random" departSpeed="10" />
    <vehicle id="N_W_261" type="standard_car" route="N_W" depart="981.0" departLane="random" departSpeed="10" />
    <vehicle id="S_W_262" type="standard_car" route="S_W" depart="985.0" departLane="random" departSpeed="10" />
    <vehicle id="Ν_S_263" type="standard_car" route="N_S" depart="986.0" departLane="random" departSpeed="10" />
    <vehicle id="Ν_S_264" type="standard_car" route="N_S" depart="990.0" departLane="random" departSpeed="10" />
    <vehicle id="S_W_266" type="standard_car" route="S_W" depart="995.0" departLane="random" departSpeed="10" />
    <vehicle id="Ν_S_267" type="standard_car" route="N_S" depart="998.0" departLane="random" departSpeed="10" />
    <vehicle id="S_W_269" type="standard_car" route="S_W" depart="1000.0" departLane="random" departSpeed="10" />
    <vehicle id="N_W_270" type="standard_car" route="N_W" depart="1004.0" departLane="random" departSpeed="10" />
    <vehicle id="Ν_S_271" type="standard_car" route="N_S" depart="1010.0" departLane="random" departSpeed="10" />
    <vehicle id="S_W_272" type="standard_car" route="S_W" depart="1011.0" departLane="random" departSpeed="10" />
    <vehicle id="Ν_S_275" type="standard_car" route="N_S" depart="1015.0" departLane="random" departSpeed="10" />
    <vehicle id="N_W_277" type="standard_car" route="N_W" depart="1018.0" departLane="random" departSpeed="10" />
    <vehicle id="Ν_S_278" type="standard_car" route="N_S" depart="1020.0" departLane="random" departSpeed="10" />
    <vehicle id="Ν_S_281" type="standard_car" route="N_S" depart="1026.0" departLane="random" departSpeed="10" />
    <vehicle id="Ν_S_282" type="standard_car" route="N_S" depart="1030.0" departLane="random" departSpeed="10" />
    <vehicle id="N_W_283" type="standard_car" route="N_W" depart="1035.0" departLane="random" departSpeed="10" />
    <vehicle id="N_W_284" type="standard_car" route="N_W" depart="1038.0" departLane="random" departSpeed="10" />
    <vehicle id="Ν_S_285" type="standard_car" route="N_S" depart="1038.0" departLane="random" departSpeed="10" />
    <vehicle id="S_W_286" type="standard_car" route="S_W" depart="1038.0" departLane="random" departSpeed="10" />
    <vehicle id="Ν_S_287" type="standard_car" route="N_S" depart="1039.0" departLane="random" departSpeed="10" />
    <vehicle id="Ν_S_288" type="standard_car" route="N_S" depart="1040.0" departLane="random" departSpeed="10" />
    <vehicle id="S_W_289" type="standard_car" route="S_W" depart="1047.0" departLane="random" departSpeed="10" />
    <vehicle id="S_W_291" type="standard_car" route="S_W" depart="1050.0" departLane="random" departSpeed="10" />
    <vehicle id="S_W_292" type="standard_car" route="S_W" depart="1052.0" departLane="random" departSpeed="10" />
    <vehicle id="S_W_293" type="standard_car" route="S_W" depart="1053.0" departLane="random" departSpeed="10" />
    <vehicle id="Ν_S_295" type="standard_car" route="N_S" depart="1054.0" departLane="random" departSpeed="10" />
    <vehicle id="Ν_S_297" type="standard_car" route="N_S" depart="1058.0" departLane="random" departSpeed="10" />
    <vehicle id="Ν_S_298" type="standard_car" route="N_S" depart="1059.0" departLane="random" departSpeed="10" />
    <vehicle id="N_W_300" type="standard_car" route="N_W" depart="1060.0" departLane="random" departSpeed="10" />
    <vehicle id="Ν_S_301" type="standard_car" route="N_S" depart="1062.0" departLane="random" departSpeed="10" />
    <vehicle id="S_W_302" type="standard_car" route="S_W" depart="1067.0" departLane="random" departSpeed="10" />
    <vehicle id="Ν_S_303" type="standard_car" route="N_S" depart="1068.0" departLane="random" departSpeed="10" />
    <vehicle id="Ν_S_304" type="standard_car" route="N_S" depart="1069.0" departLane="random" departSpeed="10" />
    <vehicle id="Ν_S_306" type="standard_car" route="N_S" depart="1071.0" departLane="random" departSpeed="10" />
    <vehicle id="Ν_S_307" type="standard_car" route="N_S" depart="1075.0" departLane="random" departSpeed="10" />
    <vehicle id="Ν_S_308" type="standard_car" route="N_S" depart="1076.0" departLane="random" departSpeed="10" />
    <vehicle id="S_W_309" type="standard_car" route="S_W" depart="1078.0" departLane="random" departSpeed="10" />
    <vehicle id="N_W_311" type="standard_car" route="N_W" depart="1084.0" departLane="random" departSpeed="10" />
    <vehicle id="Ν_S_312" type="standard_car" route="N_S" depart="1084.0" departLane="random" departSpeed="10" />
    <vehicle id="Ν_S_313" type="standard_car" route="N_S" depart="1085.0" departLane="random" departSpeed="10" />
    <vehicle id="Ν_S_315" type="standard_car" route="N_S" depart="1090.0" departLane="random" departSpeed="10" />
    <vehicle id="Ν_S_316" type="standard_car" route="N_S" depart="1097.0" departLane="random" departSpeed="10" />
    <vehicle id="Ν_S_317" type="standard_car" route="N_S" depart="1098.0" departLane="random" departSpeed="10" />
    <vehicle id="Ν_S_320" type="standard_car" route="N_S" depart="1106.0" departLane="random" departSpeed="10" />
    <vehicle id="Ν_S_321" type="standard_car" route="N_S" depart="1108.0" departLane="random" departSpeed="10" />
    <vehicle id="S_W_322" type="standard_car" route="S_W" depart="1110.0" departLane="random" departSpeed="10" />
    <vehicle id="Ν_S_323" type="standard_car" route="N_S" depart="1110.0" departLane="random" departSpeed="10" />
    <vehicle id="Ν_S_324" type="standard_car" route="N_S" depart="1114.0" departLane="random" departSpeed="10" />
    <vehicle id="S_W_325" type="standard_car" route="S_W" depart="1114.0" departLane="random" departSpeed="10" />
    <vehicle id="Ν_S_326" type="standard_car" route="N_S" depart="1115.0" departLane="random" departSpeed="10" />
    <vehicle id="N_W_327" type="standard_car" route="N_W" depart="1118.0" departLane="random" departSpeed="10" />
    <vehicle id="Ν_S_328" type="standard_car" route="N_S" depart="1120.0" departLane="random" departSpeed="10" />
    <vehicle id="Ν_S_329" type="standard_car" route="N_S" depart="1123.0" departLane="random" departSpeed="10" />
    <vehicle id="Ν_S_330" type="standard_car" route="N_S" depart="1124.0" departLane="random" departSpeed="10" />
    <vehicle id="Ν_S_331" type="standard_car" route="N_S" depart="1131.0" departLane="random" departSpeed="10" />
    <vehicle id="Ν_S_333" type="standard_car" route="N_S" depart="1134.0" departLane="random" departSpeed="10" />
    <vehicle id="S_W_334" type="standard_car" route="S_W" depart="1135.0" departLane="random" departSpeed="10" />
    <vehicle id="S_W_336" type="standard_car" route="S_W" depart="1146.0" departLane="random" departSpeed="10" />
    <vehicle id="Ν_S_337" type="standard_car" route="N_S" depart="1146.0" departLane="random" departSpeed="10" />
    <vehicle id="Ν_S_338" type="standard_car" route="N_S" depart="1147.0" departLane="random" departSpeed="10" />
    <vehicle id="Ν_S_341" type="standard_car" route="N_S" depart="1151.0" departLane="random" departSpeed="10" />
    <vehicle id="Ν_S_344" type="standard_car" route="N_S" depart="1155.0" departLane="random" departSpeed="10" />
    <vehicle id="N_W_346" type="standard_car" route="N_W" depart="1160.0" departLane="random" departSpeed="10" />
    <vehicle id="S_W_347" type="standard_car" route="S_W" depart="1164.0" departLane="random" departSpeed="10" />
    <vehicle id="Ν_S_349" type="standard_car" route="N_S" depart="1166.0" departLane="random" departSpeed="10" />
    <vehicle id="S_W_350" type="standard_car" route="S_W" depart="1167.0" departLane="random" departSpeed="10" />
    <vehicle id="N_W_351" type="standard_car" route="N_W" depart="1170.0" departLane="random" departSpeed="10" />
    <vehicle id="Ν_S_353" type="standard_car" route="N_S" depart="1172.0" departLane="random" departSpeed="10" />
    <vehicle id="S_W_354" type="standard_car" route="S_W" depart="1172.0" departLane="random" departSpeed="10" />
    <vehicle id="Ν_S_355" type="standard_car" route="N_S" depart="1176.0" departLane="random" departSpeed="10" />
    <vehicle id="Ν_S_356" type="standard_car" route="N_S" depart="1178.0" departLane="random" departSpeed="10" />
    <vehicle id="N_W_357" type="standard_car" route="N_W" depart="1178.0" departLane="random" departSpeed="10" />
    <vehicle id="N_W_358" type="standard_car" route="N_W" depart="1178.0" departLane="random" departSpeed="10" />
    <vehicle id="Ν_S_360" type="standard_car" route="N_S" depart="1185.0" departLane="random" departSpeed="10" />
    <vehicle id="Ν_S_361" type="standard_car" route="N_S" depart="1185.0" departLane="random" departSpeed="10" />
    <vehicle id="Ν_S_362" type="standard_car" route="N_S" depart="1193.0" departLane="random" departSpeed="10" />
    <vehicle id="Ν_S_363" type="standard_car" route="N_S" depart="1193.0" departLane="random" departSpeed="10" />
    <vehicle id="S_W_364" type="standard_car" route="S_W" depart="1196.0" departLane="random" departSpeed="10" />
    <vehicle id="N_W_366" type="standard_car" route="N_W" depart="1197.0" departLane="random" departSpeed="10" />
    <vehicle id="N_W_368" type="standard_car" route="N_W" depart="1201.0" departLane="random" departSpeed="10" />
    <vehicle id="Ν_S_369" type="standard_car" route="N_S" depart="1202.0" departLane="random" departSpeed="10" />
    <vehicle id="N_W_370" type="standard_car" route="N_W" depart="1204.0" departLane="random" departSpeed="10" />
    <vehicle id="N_W_371" type="standard_car" route="N_W" depart="1207.0" departLane="random" departSpeed="10" />
    <vehicle id="N_W_372" type="standard_car" route="N_W" depart="1210.0" departLane="random" departSpeed="10" />
    <vehicle id="Ν_S_377" type="standard_car" route="N_S" depart="1219.0" departLane="random" departSpeed="10" />
    <vehicle id="Ν_S_380" type="standard_car" route="N_S" depart="1221.0" departLane="random" departSpeed="10" />
    <vehicle id="Ν_S_382" type="standard_car" route="N_S" depart="1228.0" departLane="random" departSpeed="10" />
    <vehicle id="Ν_S_384" type="standard_car" route="N_S" depart="1230.0" departLane="random" departSpeed="10" />
    <vehicle id="N_W_385" type="standard_car" route="N_W" depart="1230.0" departLane="random" departSpeed="10" />
    <vehicle id="N_W_386" type="standard_car" route="N_W" depart="1231.0" departLane="random" departSpeed="10" />
    <vehicle id="Ν_S_387" type="standard_car" route="N_S" depart="1232.0" departLane="random" departSpeed="10" />
    <vehicle id="Ν_S_389" type="standard_car" route="N_S" depart="1233.0" departLane="random" departSpeed="10" />
    <vehicle id="Ν_S_391" type="standard_car" route="N_S" depart="1238.0" departLane="random" departSpeed="10" />
    <vehicle id="S_W_392" type="standard_car" route="S_W" depart="1239.0" departLane="random" departSpeed="10" />
    <vehicle id="Ν_S_393" type="standard_car" route="N_S" depart="1240.0" departLane="random" departSpeed="10" />